submission/ieee_cdf_sample.dat
08/20/93 UW ARCHIVE           100.0  1961 W IEEE 30 Bus Test Case
BUS DATA FOLLOWS                            14 ITEMS
   1 GlenLyn  132  1  1  3 1.060    0.0      0.0      0.0    260.2   -16.1   132.0  1.060     0.0     0.0   0.0    0.0        0
   2 Claytor  132  1  1  2 1.043  -5.48     21.7     12.7     40.0    50.0   132.0  1.045    50.0   -40.0   0.0    0.0        0
   3 Kumis    132  1  1  0 1.021  -7.96      2.4      1.2      0.0     0.0   132.0  0.0       0.0     0.0   0.0    0.0        0
   4 Hancock  132  1  1  0 1.012  -9.62      7.6      1.6      0.0     0.0   132.0  0.0       0.0     0.0   0.0    0.0        0
   5 Fieldale 132  1  1  2 1.010 -14.37     94.2     19.0      0.0    37.0   132.0  1.010    40.0   -40.0   0.0    0.0        0
   6 Roanoke  132  1  1  0 1.010 -11.34      0.0      0.0      0.0     0.0   132.0  0.0       0.0     0.0   0.0    0.0        0
   7 Blaine   132  1  1  0 1.002 -13.12     22.8     10.9      0.0     0.0   132.0  0.0       0.0     0.0   0.0    0.0        0
   8 Reusens  132  1  1  2 1.010 -12.10     30.0     30.0      0.0    37.3   132.0  1.010    40.0   -10.0   0.0    0.0        0
   9 Roanoke  1.0  1  1  0 1.051 -14.38      0.0      0.0      0.0     0.0     1.0  0.0       0.0     0.0   0.0    0.0        0
  10 Roanoke   33  1  1  0 1.045 -15.97      5.8      2.0      0.0     0.0    33.0  0.0       0.0     0.0   0.0    0.19       0
  11 Roanoke   11  1  1  2 1.082 -14.39      0.0      0.0      0.0    16.2    11.0  1.082    24.0    -6.0   0.0    0.0        0
  12 Hancock   33  1  1  0 1.057 -15.24     11.2      7.5      0.0     0.0    33.0  0.0       0.0     0.0   0.0    0.0        0
  13 Hancock   11  1  1  2 1.071 -15.24      0.0      0.0      0.0    10.6    11.0  1.071    24.0    -6.0   0.0    0.0        0
  14 Bus_14    33  1  1  0 1.042 -16.13      6.2      1.6      0.0     0.0    33.0  0.0       0.0     0.0   0.0    0.0        0
-999 
BRANCH DATA FOLLOWS                         17 ITEMS
   1    2  1  1 1 0  0.0192    0.0575      0.0528     0     0     0    0 0  0.0       0.0 0.0    0.0     0.0    0.0   0.0
   1    3  1  1 1 0  0.0452    0.1652      0.0408     0     0     0    0 0  0.0       0.0 0.0    0.0     0.0    0.0   0.0
   2    4  1  1 1 0  0.0570    0.1737      0.0368     0     0     0    0 0  0.0       0.0 0.0    0.0     0.0    0.0   0.0
   3    4  1  1 1 0  0.0132    0.0379      0.0084     0     0     0    0 0  0.0       0.0 0.0    0.0     0.0    0.0   0.0
   2    5  1  1 1 0  0.0472    0.1983      0.0418     0     0     0    0 0  0.0       0.0 0.0    0.0     0.0    0.0   0.0
   2    6  1  1 1 0  0.0581    0.1763      0.0374     0     0     0    0 0  0.0       0.0 0.0    0.0     0.0    0.0   0.0
   4    6  1  1 1 0  0.0119    0.0414      0.0090     0     0     0    0 0  0.0       0.0 0.0    0.0     0.0    0.0   0.0
   5    7  1  1 1 0  0.0460    0.1160      0.0204     0     0     0    0 0  0.0       0.0 0.0    0.0     0.0    0.0   0.0
   6    7  1  1 1 0  0.0267    0.0820      0.0170     0     0     0    0 0  0.0       0.0 0.0    0.0     0.0    0.0   0.0
   6    8  1  1 1 0  0.0120    0.0420      0.0090     0     0     0    0 0  0.0       0.0 0.0    0.0     0.0    0.0   0.0
   6    9  1  1 1 0  0.0       0.2080      0.0        0     0     0    0 0  0.978     0.0 0.0    0.0     0.0    0.0   0.0
   6   10  1  1 1 0  0.0       0.5560      0.0        0     0     0    0 0  0.969     0.0 0.0    0.0     0.0    0.0   0.0
   9   11  1  1 1 0  0.0       0.2080      0.0        0     0     0    0 0  0.0       0.0 0.0    0.0     0.0    0.0   0.0
   9   10  1  1 1 0  0.0       0.1100      0.0        0     0     0    0 0  0.0       0.0 0.0    0.0     0.0    0.0   0.0
   4   12  1  1 1 0  0.0       0.2560      0.0        0     0     0    0 0  0.932     0.0 0.0    0.0     0.0    0.0   0.0
  12   13  1  1 1 0  0.0       0.1400      0.0        0     0     0    0 0  0.0       0.0 0.0    0.0     0.0    0.0   0.0
  12   14  1  1 1 0  0.1231    0.2559      0.0        0     0     0    0 0  0.0       0.0 0.0    0.0     0.0    0.0   0.0
-999